15
Coordinates from ORCA-job ts
  N   -2.19532456339258     -0.06065886503767     -0.00235808699172
  C   -0.91755493587003      0.46529335387888     -0.00736042865252
  C   -0.07136603022663     -0.66873206472761     -0.01262033116480
  N   -0.81203995408340     -1.84533003932556     -0.01264012024884
  C   -2.06974889510765     -1.44667546852404     -0.00709901447237
  C   1.31761600074832     -0.38726222320170     -0.02650663001103
  N   1.65675254365565      0.96601127194378     -0.03658982674920
  C   0.75014348691157      1.95674846217706     -0.02507412031752
  N   -0.57584140858798      1.77601824586066     -0.01111601354862
  H   1.13122459194419      2.97701352131101     -0.03102020744864
  N   2.49058681721693     -0.99686426738244     -0.03375384124276
  H   -3.05174509979592      0.48223422262941     -0.00085222781831
  H   -2.93713965295356     -2.09680658169712     -0.00398204771737
  H   2.57709357474707     -2.00749656066385     -0.10056606388658
  H   2.85426352479402      0.36615699275918     -0.06979103972971
  